AMX
ARD
arameter
backends
BDCSVD
Benchmarking
benchmarking
binary's
boldsymbol
cdot
colourblind
coprocessor
CUDA
csv
cuda
cuSOLVER
DESCRIPTION
Doherty
eigen
Eigen
ESTimation
et
Evensen
favourable
Fienen
geq
gg
ggplot
Geosciences
Glasserman
glm
Guillas
Halko
hotspot
hydrological
IES
ies
inv
jcb
jco
jk
ldots
Levenberg
Lifecycle
Liu
Marquardt
Martinsson
mathcal
MDA
MKL
mn
mnk
mnmin
modelling
MODFLOW
Morris
morris
natively
nD
NeurIPS
nobs
NOBS
nonlinear
npar
NPAR
nreal
NWT
obs
OpenBLAS
ooling
optimisation
Optimisation
optimised
Optimised
parameterised
params
pestpp
PESTO's
pre
pst
ptimisation
pyEMU
qquad
Rahimi
Randomised
randomised
RBF
RcppEigen
Recht
reimplementation
rSVD
rsvd
R's
SEN
sen
sim
Sobol
sobol
Speedup
speedup
speedups
Springer
standalone
stderr
stimation
SWP
swp
Tikhonov
transmissivity
Tropp
Tropp's
unfavourable
UQ
urrogates
USGS
varepsilon
Color
eq
etc
Jacobians
offs
RFF
